
**** 09/28/23 18:08:44 ******* PSpice Lite (March 2016) ******* ID# 10813 ****

 ** Profile: "SCHEMATIC1-Sim"  [ d:\workspace\circuitos_dc-ac\practica 1\pspice-PSpiceFiles\SCHEMATIC1\Sim.sim ] 


 ****     CIRCUIT DESCRIPTION


******************************************************************************




** Creating circuit file "Sim.cir" 
** WARNING: THIS AUTOMATICALLY GENERATED FILE MAY BE OVERWRITTEN BY SUBSEQUENT SIMULATIONS

*Libraries: 
* Profile Libraries :
* Local Libraries :
* From [PSPICE NETLIST] section of C:\Users\jehh1\AppData\Roaming\cdssetup\OrCAD_PSpice\17.2.0\PSpice.ini file:
.lib "nomd.lib" 

*Analysis directives: 
.TRAN  0 500ms 0 
.OPTIONS ADVCONV
.PROBE64 V(alias(*)) I(alias(*)) W(alias(*)) D(alias(*)) NOISE(alias(*)) 
.INC "..\SCHEMATIC1.net" 



**** INCLUDING SCHEMATIC1.net ****
* source PSPICE
R_R12         0 N00717  100 TC=0,0 
R_R8         N00705 N00709  560 TC=0,0 
R_R10         N00713 N00717  330 TC=0,0 
R_R9         N00709 N00713  470 TC=0,0 
R_R7         0 N00705  690 TC=0,0 
R_R11         0 N00717  220 TC=0,0 
V_V1         0 0 9Vdc

**** RESUMING Sim.cir ****
.END

ERROR(ORPSIM-15143): Voltage source and/or inductor loop involving V_V1. You may break the loop by adding a series resistance
