
**** 11/21/23 09:49:03 ******* PSpice Lite (March 2016) ******* ID# 10813 ****

 ** Profile: "SCHEMATIC1-sim"  [ D:\WorkSpace\Circuitos_DC-AC\21-Nov-23-PSpiceFiles\SCHEMATIC1\sim.sim ] 


 ****     CIRCUIT DESCRIPTION


******************************************************************************




** Creating circuit file "sim.cir" 
** WARNING: THIS AUTOMATICALLY GENERATED FILE MAY BE OVERWRITTEN BY SUBSEQUENT SIMULATIONS

*Libraries: 
* Profile Libraries :
* Local Libraries :
* From [PSPICE NETLIST] section of C:\Users\jehh1\AppData\Roaming\cdssetup\OrCAD_PSpice\17.2.0\PSpice.ini file:
.lib "nomd.lib" 

*Analysis directives: 
.TRAN  0 80ms 60ms 1u 
.OPTIONS ADVCONV
.PROBE64 V(alias(*)) I(alias(*)) W(alias(*)) D(alias(*)) NOISE(alias(*)) 
.INC "..\SCHEMATIC1.net" 



**** INCLUDING SCHEMATIC1.net ****
* source 21-NOV-23
V_V1         N00165 0  
+SIN 0 2.8284 159.15 0 0 0
C_C1         N00172 N00176  10n  TC=0,0 
R_R1         N00165 N00172  80k TC=0,0 
R_R2         N00176 N00180  330 TC=0,0 
L_L1         N00180 0  1.5H  

**** RESUMING sim.cir ****
.END

**** 11/21/23 09:49:03 ******* PSpice Lite (March 2016) ******* ID# 10813 ****

 ** Profile: "SCHEMATIC1-sim"  [ D:\WorkSpace\Circuitos_DC-AC\21-Nov-23-PSpiceFiles\SCHEMATIC1\sim.sim ] 


 ****     INITIAL TRANSIENT SOLUTION       TEMPERATURE =   27.000 DEG C


******************************************************************************



 NODE   VOLTAGE     NODE   VOLTAGE     NODE   VOLTAGE     NODE   VOLTAGE


(N00165)    0.0000 (N00172)    0.0000 (N00176)    0.0000 (N00180)    0.0000 




    VOLTAGE SOURCE CURRENTS
    NAME         CURRENT

    V_V1         0.000E+00

    TOTAL POWER DISSIPATION   0.00E+00  WATTS



          JOB CONCLUDED

**** 11/21/23 09:49:03 ******* PSpice Lite (March 2016) ******* ID# 10813 ****

 ** Profile: "SCHEMATIC1-sim"  [ D:\WorkSpace\Circuitos_DC-AC\21-Nov-23-PSpiceFiles\SCHEMATIC1\sim.sim ] 


 ****     JOB STATISTICS SUMMARY


******************************************************************************



  Total job time (using Solver 1)   =         .83
